*MATERIAL, NAME=alum6061
*DENSITY
2.8E-9
*ELASTIC
68900.0, 0.33
**
** From https://www.osti.gov/biblio/1532690
*SURFACE INTERACTION, NAME=BOND
6.5
**
*FRICTION
0.2
**
*COHESIVE BEHAVIOR
53.8, 0.66, 0.66
*DAMAGE INITIATION, CRITERION=QUADS
0.45, 0.17, 0.17
*DAMAGE EVOLUTION, TYPE=ENERGY, MIXED MODE BEHAVIOR=BK, POWER=1, SOFTENING=LINEAR
0.0079, 0.04, 0.04
**
*DAMAGE STABILIZATION
0.0
**
**
**
